LAMMPS (29 Oct 2020)
#Input example Generated by GS JUNG@ornl
units           metal
dimension       3
boundary        p p p
atom_style      full
atom_modify     sort 0 0.0    # turn off sorting of the coordinates
read_data       graphene.data
Reading data file ...
  orthogonal box = (0.0000000 0.0000000 -16.750000) to (7.3785364 8.5200000 16.750000)
  reading atoms ...
  24 atoms
Finding 1-2 1-3 1-4 neighbors ...
     0 = max # of 1-2 neighbors
     0 = max # of 1-3 neighbors
     0 = max # of 1-4 neighbors
     1 = max # of special neighbors

# initialize system

velocity	all create 300.0 87287 loop geom

pair_style      zero 1.0
pair_coeff	* *

neighbor        1.0 bin
neigh_modify    every 1 delay 0 check yes

variable	dt equal 0.001
timestep        0.001
dump		equil all xyz 10 equil.xyz
dump_modify     equil element C N

thermo      	10
thermo_style 	custom step temp ke pe press pxx pyy pzz xlo xhi ylo yhi
thermo_modify   norm no flush yes

fix             integ all nve
fix             2 all dftbp dftb_in.hsd NULL
fix_modify      2 energy yes
fix             therm   all langevin  10.0 10.0  0.1 699483

fix	        emin all box/relax x 0.0 y 0.0
min_style       cg
min_modify      dmax 0.2
min_modify      line quadratic
minimize        0.0 1.0e-8 1000 10000
  update every 1 steps, delay 0 steps, check yes
Step Temp KinEng PotEng Press Pxx Pyy Pzz Xlo Xhi Ylo Yhi
0          300     0.891895   -1428.6694    451.91672    367.34968     534.1549    454.24557            0    7.3785364            0         8.52
Loop time of 106.39 on 1 procs for 201 steps with 24 atoms

Minimization stats:
  Stopping criterion = linesearch alpha is zero
  Energy initial, next-to-last, final =
  Force two-norm initial, final = 2.1263771 0.00061954404
  Force max component initial, final = 1.1193935 0.00018154062
  Final line search alpha, max atom move = 7.4742309e-05 1.3568765e-08
  Iterations, force evaluations = 201 365

unfix		emin

unfix           integ
fix             3 all npt temp 300 300 1.0 x 0 0 10 y 0 0 10
run             1000
Step Temp KinEng PotEng Press Pxx Pyy Pzz Xlo Xhi Ylo Yhi
201          300     0.891895   -1428.8115    458.56701    373.06308    542.15372    460.48423  0.025283516    7.3532529  0.028716536    8.4912835
Averages over the last 51 of 102 rows, steps 710 to 1201:
Temp KinEng PotEng Press Pxx Pyy Pzz Xlo Xhi Ylo Yhi
10.0593 0.0299061 -1428.78 15.3358 15.9041 15.091 15.0123 0.0238825 7.35465 0.0268934 8.49311
Loop time of 364.644 on 1 procs for 1000 steps with 24 atoms
