
#======================================================================
# CRYSTAL DATA
#----------------------------------------------------------------------
data_VESTA_phase_1

_chemical_name_common                  'Ti1 Pb1 O3'
_cell_length_a                         11.907146
_cell_length_b                         11.907146
_cell_length_c                         11.907146
_cell_angle_alpha                      90.000000
_cell_angle_beta                       90.000000
_cell_angle_gamma                      90.000000
_cell_volume                           1688.196852
_space_group_name_H-M_alt              'P 1'
_space_group_IT_number                 1

loop_
_space_group_symop_operation_xyz
   'x, y, z'
   'x, y, z+1/3'
   'x, y, z+2/3'
   'x, y+1/3, z'
   'x, y+1/3, z+1/3'
   'x, y+1/3, z+2/3'
   'x, y+2/3, z'
   'x, y+2/3, z+1/3'
   'x, y+2/3, z+2/3'
   'x+1/3, y, z'
   'x+1/3, y, z+1/3'
   'x+1/3, y, z+2/3'
   'x+1/3, y+1/3, z'
   'x+1/3, y+1/3, z+1/3'
   'x+1/3, y+1/3, z+2/3'
   'x+1/3, y+2/3, z'
   'x+1/3, y+2/3, z+1/3'
   'x+1/3, y+2/3, z+2/3'
   'x+2/3, y, z'
   'x+2/3, y, z+1/3'
   'x+2/3, y, z+2/3'
   'x+2/3, y+1/3, z'
   'x+2/3, y+1/3, z+1/3'
   'x+2/3, y+1/3, z+2/3'
   'x+2/3, y+2/3, z'
   'x+2/3, y+2/3, z+1/3'
   'x+2/3, y+2/3, z+2/3'

loop_
   _atom_site_label
   _atom_site_occupancy
   _atom_site_fract_x
   _atom_site_fract_y
   _atom_site_fract_z
   _atom_site_adp_type
   _atom_site_U_iso_or_equiv
   _atom_site_type_symbol
   Ti0        1.0     0.166667     0.166667     0.166667    Uiso  ? Ti
   Pb1        1.0     0.000000     0.000000     0.000000    Uiso  ? Pb
   O2         1.0     0.166667     0.000000     0.166667    Uiso  ? O
   O3         1.0     0.166667     0.166667     0.000000    Uiso  ? O
   O4         1.0     0.000000     0.166667     0.166667    Uiso  ? O
